8
Glycine conformer II
C     -1.07722    0.16016   -0.00010
H     -1.42852    0.99220    0.59765
H     -1.63583   -0.66986   -0.56938
N      0.30154   -0.27091   -0.00002
H      0.71077    0.57393    0.34758
H      0.68112   -0.67243   -0.88723
C      1.46594   -0.12513    0.73022
O      1.57943   -0.13410    1.93489
O      2.56942   -0.12349   -0.02705
H      2.80909   -0.02013   -0.94056
